#======================================================================

# CRYSTAL DATA

#----------------------------------------------------------------------

data_VESTA_phase_1


_pd_phase_name                         'B2 N4                                 '
_cell_length_a                         6.84297
_cell_length_b                         2.55111
_cell_length_c                         18.35414
_cell_angle_alpha                      90
_cell_angle_beta                       94.93523
_cell_angle_gamma                      90
_symmetry_space_group_name_H-M         'P 1'
_symmetry_Int_Tables_number            1

loop_
_symmetry_equiv_pos_as_xyz
   'x, y, z'

loop_
   _atom_site_label
   _atom_site_occupancy
   _atom_site_fract_x
   _atom_site_fract_y
   _atom_site_fract_z
   _atom_site_adp_type
   _atom_site_B_iso_or_equiv
   _atom_site_type_symbol
   B1         1.0     0.833780     -0.000000      0.918274     Biso  1.000000 B
   B2         1.0     0.333781      0.500000      0.918274     Biso  1.000000 B
   N1         1.0     0.718671      0.500000      0.918286     Biso  1.000000 N
   N2         1.0     0.530537      0.500000      0.918130     Biso  1.000000 N
   N3         1.0     0.218671     -0.000000      0.918286     Biso  1.000000 N
   N4         1.0     0.030537      0.000000      0.918130     Biso  1.000000 N
